603
intervening_nonoverlapping_A._A.xyz    Empirical formula: C191H241Cu2N59O96P14    Energy(Hartree): -25900.146381    
O        7.6904060000   -7.6471180000   -7.0793720000
C        8.7896410000   -8.5146210000   -6.9247980000
C        9.1840880000   -8.6046780000   -5.4445420000
O        9.8416160000   -7.4167540000   -5.0106730000
C        7.9714610000   -8.7951970000   -4.5223670000
O        8.3534930000   -9.6611230000   -3.4586750000
C        7.6923270000   -7.3909500000   -4.0171560000
C        9.0707350000   -6.7319830000   -4.0423840000
N        9.0354640000   -5.3215630000   -4.3689510000
C        9.5968400000   -4.3966970000   -3.4825080000
O        9.9618080000   -4.7843390000   -2.3645920000
N        9.7362130000   -3.1281720000   -3.8717350000
C        9.2796840000   -2.7127000000   -5.0569410000
N        9.4848530000   -1.4557300000   -5.4111370000
C        8.6158620000   -3.6191960000   -5.9388860000
C        8.5444920000   -4.9138750000   -5.5655720000
P        7.2141490000  -10.2365870000   -2.4821440000
O        8.0891930000  -10.7647180000   -1.2602730000
C        9.0076800000   -9.9564560000   -0.5512320000
C        8.3589210000   -8.7987330000    0.1958990000
O        8.0481310000   -7.7420280000   -0.6856840000
C        7.0400900000   -9.1406730000    0.9267610000
O        7.3712990000   -9.4314310000    2.2729710000
C        6.1782360000   -7.8902080000    0.7279860000
C        7.1341100000   -6.9103570000    0.0310550000
N        6.5288470000   -5.9876340000   -0.8729200000
C        5.6496860000   -6.2436240000   -1.9026230000
N        5.5075750000   -5.2471750000   -2.7184670000
C        6.3317340000   -4.2578180000   -2.2361550000
C        6.6734680000   -2.9727580000   -2.7402110000
O        6.3023060000   -2.4502460000   -3.7915990000
N        7.5516830000   -2.3025120000   -1.9013390000
C        8.0803680000   -2.8091590000   -0.7482110000
N        8.9585800000   -2.0502440000   -0.0866090000
N        7.8075320000   -4.0164050000   -0.2970990000
C        6.9672570000   -4.7104810000   -1.0774700000
P        6.2167940000   -9.4940510000    3.3926370000
O        6.1804700000   -8.0473930000    4.0508760000
C        7.4177920000   -7.4460390000    4.4136750000
C        7.2527020000   -5.9329600000    4.4043650000
O        6.8678310000   -5.4815100000    3.1203480000
C        6.1749750000   -5.4203460000    5.3887420000
O        6.8561090000   -4.8948670000    6.5188310000
C        5.4002290000   -4.3749850000    4.5844990000
C        6.2510450000   -4.2220040000    3.3087770000
P        6.0115180000   -4.6742200000    7.8668810000
O        5.6776480000   -3.1236300000    7.9421590000
C        6.7413220000   -2.1931760000    7.8273100000
C        6.2995470000   -0.9608940000    7.0332590000
C        5.0298650000   -0.3192970000    7.6322160000
O        5.0439600000    1.0683250000    7.3024600000
P        4.3914810000    2.0172310000    8.4837450000
O        5.0743230000    3.4322590000    8.0523620000
C        5.1285720000    3.8754330000    6.7219820000
C        3.7750820000    4.2002650000    6.1011090000
C        2.7777940000    4.9054610000    7.0441940000
O        2.8363830000    6.2801540000    6.7493440000
C        1.4357630000    4.2349930000    6.7337100000
P        1.9079170000    7.3132400000    7.6277400000
O        0.5870370000    7.4895330000    6.6577920000
C        0.7951140000    8.1522140000    5.4265020000
C        0.1715080000    7.3436490000    4.2856840000
O        0.9158890000    6.1656990000    4.1210080000
C       -1.3315510000    7.1354720000    4.5951960000
O       -1.9746500000    8.2653360000    4.0406890000
P       -3.5781260000    8.4790370000    4.3347180000
O       -3.8641700000    9.9136650000    4.0638880000
O       -4.2424590000    7.5792310000    3.1339430000
C       -4.3800450000    8.1396520000    1.8471030000
C       -5.8220980000    7.9437600000    1.3593230000
O       -6.1761690000    6.5727590000    1.3330000000
C       -6.8447040000    8.6293030000    2.2743860000
C       -7.2648280000    7.5155630000    3.2260480000
C       -6.9997870000    6.2280060000    2.4433920000
C       -9.2295290000   -3.8154830000   -5.5765880000
P       -5.8695480000   -0.9462240000   -6.2955670000
O       -5.1668040000   -2.2301240000   -6.3741290000
O       -4.8880250000    0.2012850000   -5.8064830000
C       -5.3576220000    1.5405350000   -5.6807180000
C       -8.3609910000   -2.6675960000   -6.1099690000
O       -8.8883170000   -2.1236790000   -7.3125640000
C       -8.2512310000   -1.4951130000   -5.1323010000
O       -7.0121480000   -0.8070380000   -5.1976360000
C       -9.3963490000   -0.5857530000   -5.5821400000
C       -9.4899140000   -0.8670330000   -7.0873730000
P       -0.7492680000    3.5624180000   -6.6959230000
O        0.2961840000    2.7640470000   -6.0290650000
O       -0.5112860000    5.1384480000   -6.6273290000
C        0.1865640000    5.6879180000   -5.5266670000
C        1.2591130000    6.6662170000   -6.0432200000
O        0.7807470000    7.4910810000   -7.0947770000
C        1.6843510000    7.6301990000   -4.9285630000
O        3.0017920000    8.1261560000   -5.1149230000
C        0.7126410000    8.7935790000   -5.1128760000
C        0.4012060000    8.7501190000   -6.6207870000
P        4.2548670000    7.1407380000   -4.9251050000
O        4.3661020000    6.0329390000   -5.8767380000
O        4.1314530000    6.5638950000   -3.4504650000
C        4.0728340000    7.3852980000   -2.2943460000
C        5.2678740000    7.0840980000   -1.3815720000
O        5.2565290000    5.7185980000   -0.9921970000
C        6.6255950000    7.3451590000   -2.0488030000
O        7.4682290000    7.9321670000   -1.0533640000
C        7.0745320000    5.9634770000   -2.5079160000
C        6.3592270000    5.0090970000   -1.5450560000
P        8.9699540000    8.3361230000   -1.3521030000
O        9.8229050000    6.9636740000   -1.3160290000
C        9.9234710000    6.3541110000   -0.0436140000
C       10.4069000000    4.9245440000   -0.2281670000
O        9.4111480000    4.1514440000   -0.8663510000
C       11.6804290000    4.8227750000   -1.1069650000
O       12.7747980000    4.3007930000   -0.3632470000
C       11.2864640000    3.8456620000   -2.2101170000
C       10.1180800000    3.1128350000   -1.5448770000
N        9.2387270000    2.3758960000   -2.3963360000
C        8.9053830000    1.0538380000   -2.0318020000
O        9.3789140000    0.5881720000   -0.9868460000
N        8.1022020000    0.3518290000   -2.8201480000
C        7.6055360000    0.8598580000   -3.9553910000
N        6.8470380000    0.0937890000   -4.7099220000
C        7.9088470000    2.2072160000   -4.3360760000
C        8.7154690000    2.9189990000   -3.5252110000
P       13.4182620000    5.2362850000    0.7472870000
O       14.7753880000    4.4863230000    1.0787030000
C       15.0094840000    3.9651050000    2.3861360000
C       15.2780800000    2.4653160000    2.3463620000
O       14.1539950000    1.7457840000    1.8628510000
C       16.4707630000    2.0799790000    1.4538650000
O       17.6469590000    2.1962610000    2.2016920000
C       16.1071320000    0.6428440000    1.0509800000
C       14.5736570000    0.6388070000    1.0775090000
N       13.9909490000    0.7347160000   -0.2385300000
C       14.0788900000    1.7689590000   -1.1316970000
N       13.3219720000    1.6177730000   -2.1748200000
C       12.6753900000    0.4173850000   -1.9839380000
C       11.6751220000   -0.2593060000   -2.7378170000
O       11.0637920000    0.1652160000   -3.7260920000
N       11.4201430000   -1.5251260000   -2.2455560000
C       11.9545050000   -2.0354760000   -1.0927310000
N       11.6880880000   -3.2996820000   -0.7886500000
N       12.7699320000   -1.3527810000   -0.3031320000
C       13.0999480000   -0.1473160000   -0.7799910000
H        8.1233810000   -5.6899160000   -6.1881440000
H        8.2173980000   -3.2784950000   -6.8759460000
H        9.9974440000   -0.8235110000   -4.7991570000
H        9.1456430000   -1.1274950000   -6.2987000000
H        9.5668210000   -6.8006610000   -3.0630530000
H        7.2942670000   -7.4242240000   -3.0110930000
H        6.9982990000   -6.8757730000   -4.6777960000
H        7.1147250000   -9.2222930000   -5.0453450000
H        9.8926380000   -9.4302830000   -5.3172980000
H        9.6601900000   -8.1427670000   -7.4784990000
H        8.5406360000   -9.5243200000   -7.2686270000
H        7.3853340000   -7.6805560000   -7.9978040000
H        5.1681040000   -7.1940970000   -2.0181840000
H        7.8308360000   -1.3508870000   -2.2007980000
H        9.0817780000   -1.0755080000   -0.3480940000
H        9.1844870000   -2.3210070000    0.8537980000
H        7.6906360000   -6.3066830000    0.7650210000
H        5.8344420000   -7.4994850000    1.6801660000
H        5.3354220000   -8.1206690000    0.0821080000
H        6.5606190000  -10.0184120000    0.4875560000
H        9.0737950000   -8.4368720000    0.9524250000
H        9.7470590000   -9.5451360000   -1.2424460000
H        9.4829840000  -10.6299330000    0.1639660000
H        7.0100820000   -3.4390640000    3.4533360000
H        5.3146930000   -3.4334860000    5.1224530000
H        4.4089470000   -4.7526470000    4.3467010000
H        5.5170210000   -6.2227800000    5.7298790000
H        8.2061760000   -5.4676040000    4.6950510000
H        8.1896120000   -7.7394180000    3.6999530000
H        7.7000910000   -7.7720040000    5.4159010000
H        5.0961960000   -0.3911130000    8.7263350000
H        7.0983040000   -0.2108250000    7.1317150000
H        7.5799670000   -2.6578470000    7.3044310000
H        7.0489090000   -1.8832900000    8.8274790000
H        0.6679000000    4.9875720000    6.5726310000
H        1.1637000000    3.5826950000    7.5620610000
H        3.0426000000    4.7545180000    8.0963920000
H        3.9387090000    4.8909420000    5.2549560000
H        5.6146920000    3.1166280000    6.1015350000
H        5.7258970000    4.7907600000    6.7500180000
H       -1.4722780000    7.1472410000    5.6850900000
H        0.2339500000    7.9612940000    3.3747960000
H        1.8691190000    8.2786830000    5.2676870000
H        0.3090650000    9.1321730000    5.4755540000
H       -7.9229490000    5.8235960000    1.9995500000
H       -8.3109750000    7.6060860000    3.5036860000
H       -6.6521890000    7.5806490000    4.1223850000
H       -6.3847390000    9.4656450000    2.8116630000
H       -5.8967340000    8.3216960000    0.3338560000
H       -3.6932880000    7.6190560000    1.1723600000
H       -4.1309550000    9.2040300000    1.8876120000
H      -10.0428100000   -3.4630470000   -4.9372640000
H       -9.6385420000   -4.3702130000   -6.4236840000
H       -8.9671250000   -0.1090610000   -7.6844510000
H       -9.1825220000    0.4591520000   -5.3775820000
H      -10.3220670000   -0.8643760000   -5.0817070000
H       -8.3532770000   -1.8136620000   -4.0928340000
H       -7.3760050000   -3.0843240000   -6.3385530000
H        0.9590150000    9.5250140000   -7.1638460000
H        1.1594370000    9.7404380000   -4.8239700000
H       -0.1936670000    8.6315350000   -4.5319980000
H        1.6143560000    7.1595400000   -3.9452800000
H        2.1074160000    6.1088010000   -6.4465550000
H        7.0163350000    4.6875790000   -0.7232350000
H        8.1511770000    5.8501430000   -2.4391780000
H        6.7382440000    5.7988350000   -3.5305770000
H        6.5508650000    8.0474440000   -2.8785960000
H        5.1795610000    7.6944660000   -0.4751030000
H        3.1601450000    7.1248290000   -1.7534620000
H        4.0671430000    8.4419080000   -2.5628540000
H        8.9854530000    3.9434240000   -3.7228050000
H        7.4964620000    2.6312500000   -5.2334950000
H        6.6259160000   -0.8632920000   -4.4081020000
H        6.4138920000    0.4861850000   -5.5300990000
H       10.5029310000    2.3973310000   -0.7995650000
H       12.1004920000    3.1665680000   -2.4668250000
H       10.9523770000    4.3944890000   -3.0869480000
H       11.9589410000    5.8035550000   -1.4961320000
H       10.6345270000    4.4988030000    0.7590940000
H        8.9476870000    6.3517180000    0.4508070000
H       10.6294180000    6.9043180000    0.5829180000
H       14.7010870000    2.6235270000   -0.9658810000
H       10.7385180000   -2.1094700000   -2.7815140000
H       11.0030630000   -3.8406960000   -1.3207360000
H       12.0245270000   -3.6414230000    0.0941040000
H       14.1542880000   -0.2806070000    1.5048110000
H       16.4933300000   -0.0393990000    1.8075050000
H       16.4813210000    0.3594280000    0.0709530000
H       16.4888260000    2.7443860000    0.5804520000
H       18.4175760000    2.0547550000    1.6313830000
H       15.4998670000    2.1444680000    3.3757690000
H       14.1439290000    4.1799100000    3.0164190000
H       15.8990860000    4.4602040000    2.7822370000
O       -8.3837140000   -4.6707720000   -4.8149860000
O       -7.9070500000    9.1976270000    1.5446200000
N       -1.0157500000    9.0123900000   -6.8920530000
C       -1.4025380000   10.3271660000   -6.9436710000
O       -0.6220980000   11.2519570000   -6.7717570000
N       -2.7302760000   10.5285290000   -7.1991990000
C       -3.7116810000    9.5629730000   -7.3894740000
O       -4.8669980000    9.9056900000   -7.5919140000
C       -3.2192240000    8.1994700000   -7.3312810000
C       -4.1823530000    7.0769410000   -7.5431050000
C       -1.9074520000    7.9958190000   -7.0949510000
H       -1.4806590000    7.0054630000   -7.0826460000
H       -3.0301840000   11.4980630000   -7.2442290000
H       -3.6744880000    6.1224820000   -7.4511560000
H       -4.9869800000    7.1450820000   -6.8137970000
H       -4.6345480000    7.1642640000   -8.5285860000
P       -9.0561590000   -5.8895110000   -4.0374440000
O       -8.0694790000   -6.7792330000   -3.4269780000
O      -10.0720110000   -5.1956220000   -2.9984020000
C       -9.6960790000   -5.1787420000   -1.6264750000
C      -10.7905930000   -4.4155160000   -0.8645820000
H       -9.5906130000   -6.2089420000   -1.2934060000
C       -8.4207400000   -4.3715150000   -1.3698190000
C      -11.1628470000   -5.0107800000    0.5118580000
H      -11.6940270000   -4.3473060000   -1.4762050000
O      -10.3081170000   -3.0866410000   -0.7414940000
C       -8.9041690000   -3.0583170000   -0.7369220000
H       -7.7590800000   -4.9096540000   -0.6989770000
H       -7.9073140000   -4.1959390000   -2.3112160000
H      -11.1576020000   -4.1891020000    1.2361870000
H      -12.1643690000   -5.4462440000    0.4836200000
H       -8.6074800000   -2.1530270000   -1.2777900000
O      -10.2408390000   -5.9913450000    0.9642480000
O       12.5811790000    5.5465920000    1.9219840000
O        9.4589580000    9.3408510000   -0.4029720000
O        1.4302980000    6.6583240000    8.8723200000
O        2.9010650000    2.0201730000    8.3730370000
O        4.8142860000   -5.5115050000    7.9630170000
O        6.0744050000   -9.3579350000   -2.2118390000
O        6.1500720000   -1.3398090000    5.6847730000
H        6.0680670000   -0.5479930000    5.1405300000
O        4.9044910000   -9.9334890000    2.9183200000
C        1.7661450000    3.4271630000    5.4739770000
H        1.6831580000    4.0938240000    4.6022300000
O        3.1296520000    3.0452480000    5.6211840000
C      -11.7517840000   -1.8191510000   -7.1863530000
C      -11.1992430000    0.0588830000   -8.5512980000
C      -13.0118030000   -1.9140250000   -7.6540430000
H      -11.3725540000   -2.5184240000   -6.4591280000
C      -13.4517530000   -0.9595110000   -8.6557700000
N      -10.8583490000   -0.8663920000   -7.5947240000
O      -10.4307340000    0.9163900000   -8.9545450000
O      -14.5571830000   -0.9198130000   -9.1764770000
C      -13.9790790000   -2.9555850000   -7.1961740000
H      -14.3177100000   -3.5407790000   -8.0488550000
H      -13.5265520000   -3.6083370000   -6.4584370000
H      -14.8595580000   -2.4758290000   -6.7725160000
N      -12.4820050000   -0.0382060000   -9.0197500000
O       13.8660320000    6.4849720000   -0.1128790000
H       14.2173190000    7.2458930000    0.3675300000
O        8.9905570000    8.6745440000   -2.8805610000
H        9.7604600000    9.1582400000   -3.2116860000
O        5.4399550000    8.1694090000   -4.8904000000
H        5.6850790000    8.5582360000   -5.7407360000
O       -0.9942880000    3.2793340000   -8.2204830000
H       -0.2134480000    3.1240510000   -8.7681700000
O       -6.5060860000   -0.4306930000   -7.6511410000
H       -6.1389620000   -0.8391870000   -8.4427270000
O      -10.0381510000   -6.4823130000   -5.1184840000
H      -10.3030400000   -7.4004290000   -4.9932720000
O        6.7370310000  -11.5931510000   -3.1124610000
H        7.3961410000  -12.2901550000   -3.2294870000
O        6.9305120000  -10.3566240000    4.4984530000
H        6.8775330000  -11.3148270000    4.3966830000
O        7.1212800000   -4.8526130000    8.9695130000
H        7.2809300000   -5.7594750000    9.2636540000
O        4.9847640000    1.6536400000    9.7976640000
O        2.6570890000    8.5991700000    7.6496490000
O       -3.9680860000    7.8273180000    5.6145670000
O      -11.4330420000   -7.3587880000    7.5009110000
C      -12.4386810000   -7.8070450000    6.6224650000
H      -13.3451500000   -7.2574960000    6.8859050000
H      -12.6239110000   -8.8772550000    6.7528470000
C      -12.1341620000   -7.5260180000    5.1343930000
H      -12.8119040000   -8.1379800000    4.5238930000
O      -12.3891310000   -6.1533040000    4.8015260000
C      -11.2509960000   -5.5753290000    4.2202430000
H      -11.4918020000   -5.2073740000    3.2159250000
C      -10.7064960000   -7.7500490000    4.7433800000
H      -10.2291640000   -8.6973760000    4.8968930000
C      -10.2006630000   -6.6492830000    4.2173500000
H       -9.2149120000   -6.4608930000    3.8437660000
H       -9.4389410000   -9.0068920000    1.8566910000
P       -9.1554720000    8.4122410000    0.8959670000
O       -9.8505050000    7.4645110000    1.7735770000
O      -10.0547020000    9.6330320000    0.5165040000
O       -8.6536590000    7.9340720000   -0.5338010000
C       -8.4586650000    6.6430280000   -1.1040590000
C       -9.5602830000    5.6198760000   -0.8479880000
H       -9.5406350000    4.8921930000   -1.6754700000
O       -9.2814620000    4.9421030000    0.3599700000
C      -10.4770640000    4.2948360000    0.7415840000
H      -10.5960660000    3.3644100000    0.1632260000
C      -11.0170170000    6.1276200000   -0.7422330000
H      -11.0304590000    7.1939370000   -0.4858930000
C      -11.6008970000    5.2950940000    0.4222550000
H      -11.7790870000    5.9321360000    1.2859050000
H      -12.5148280000    4.7845940000    0.1303790000
O      -11.6378330000    5.8981110000   -1.9753900000
P      -10.7328800000   -7.5074980000    0.9862780000
O      -11.9250000000   -7.8185690000    1.7961100000
O       -9.3705250000   -8.1471020000    1.4285050000
O      -10.9255220000   -7.8693730000   -0.5494860000
H      -11.6127890000   -8.5204370000   -0.7271620000
H       -7.5298760000    6.2084790000   -0.7217550000
H       -8.3839490000    6.8511390000   -2.1730910000
H       -9.6814860000   10.2853210000   -0.0920360000
H      -12.5098120000    6.3180880000   -1.9949230000
H      -10.6969210000   -7.9879300000    7.5023280000
N        5.5093090000   -3.8604770000    2.1263480000
C        4.5825300000   -4.7263370000    1.5993650000
C        5.7790240000   -2.6525980000    1.5207140000
H        4.4803610000   -5.6538700000    2.1425090000
C        3.8627050000   -4.4597990000    0.4904890000
N        5.0403970000   -2.3828250000    0.4096340000
O        6.6002190000   -1.8588840000    1.9615290000
C        2.8604590000   -5.4004050000   -0.0938140000
C        4.0935560000   -3.1934690000   -0.1826260000
H        5.2267290000   -1.4576380000   -0.0497790000
H        2.7323290000   -6.2639740000    0.5472100000
H        1.9151700000   -4.8851410000   -0.2392280000
H        3.2069070000   -5.7156290000   -1.0759310000
O        3.5105410000   -2.8128020000   -1.1886820000
N        5.8853310000    3.7990210000   -2.1605930000
C        5.2367170000    3.6214880000   -3.3600230000
C        5.8518070000    2.5770160000   -1.5433340000
H        5.0747760000    4.4166020000   -4.0594740000
N        4.8184830000    2.4089490000   -3.5489750000
C        5.1813250000    1.7172630000   -2.4208730000
N        6.3476160000    2.2242480000   -0.3478750000
C        4.9438420000    0.3939330000   -1.9857600000
C        6.1123290000    0.9587970000   -0.0631510000
N        4.2430840000   -0.4905720000   -2.6743590000
N        5.4413890000    0.0654450000   -0.7734800000
H        6.5041210000    0.6055580000    0.8838370000
H        4.0494220000   -1.4138080000   -2.2878400000
H        3.9550240000   -0.2508600000   -3.6083690000
N       -6.4599120000    5.1268800000    3.2159880000
C       -5.7976910000    5.2421500000    4.4046210000
C       -6.6981930000    3.8314950000    2.7149990000
H       -5.4626620000    6.2255650000    4.6965950000
C       -5.5372590000    4.1862320000    5.2019640000
N       -6.5013880000    2.7905790000    3.5174630000
O       -7.0891260000    3.6813920000    1.5579930000
C       -4.8037510000    4.3419190000    6.4968710000
C       -6.0117440000    2.8784910000    4.7719460000
H       -4.6842110000    5.3968250000    6.7405940000
H       -5.3417730000    3.8350680000    7.2957390000
H       -3.8091060000    3.9015720000    6.4271860000
O       -5.9635740000    1.8538460000    5.4736830000
N       -8.3711750000   -2.8578840000    0.6050310000
C       -8.2214710000   -3.7273060000    1.6514280000
C       -7.9985180000   -1.6449220000    1.0814140000
H       -8.4838080000   -4.7647040000    1.5830980000
N       -7.7675270000   -3.1667160000    2.7349060000
C       -7.6205260000   -1.8425240000    2.4219280000
N       -7.9637570000   -0.4742560000    0.4161930000
C       -7.2261930000   -0.7053500000    3.1645890000
C       -7.5835490000    0.5256940000    1.1409720000
N       -6.8704200000   -0.6960470000    4.4304870000
N       -7.2267670000    0.4438540000    2.4437820000
H       -7.5381150000    1.5178810000    0.7147080000
H       -6.6142580000    0.1784210000    4.8951180000
H       -6.9246360000   -1.5498650000    4.9629630000
N      -10.3606070000    3.8895620000    2.1100570000
C      -10.0767950000    4.6631470000    3.2011810000
C      -10.2570710000    2.5961740000    2.5391030000
H      -10.0780110000    5.7334780000    3.1512000000
N       -9.8269640000    3.9834740000    4.2801910000
C       -9.9284330000    2.6652540000    3.8987700000
N      -10.4898050000    1.4686640000    1.8551790000
C       -9.7914280000    1.4422580000    4.5941550000
C      -10.3548130000    0.3932010000    2.6036680000
N       -9.4728750000    1.3379660000    5.8759520000
N      -10.0196870000    0.3179890000    3.8835660000
H      -10.5494640000   -0.5551030000    2.1200200000
H       -9.4753310000    0.4242200000    6.3440430000
H       -9.2839310000    2.1765750000    6.3945160000
N      -10.8196660000   -4.3931120000    4.9777420000
C      -10.6690080000   -4.4950640000    6.3292970000
C      -10.6459760000   -3.1973020000    4.3267170000
H      -10.8866870000   -5.4665480000    6.7515540000
C      -10.2965940000   -3.4600040000    7.1101880000
N      -10.2374250000   -2.1596980000    5.1140660000
O      -10.8191840000   -3.0636540000    3.1231760000
C      -10.1364220000   -3.5759570000    8.5906070000
C      -10.0503730000   -2.1835920000    6.4768430000
H      -10.1165110000   -1.2381770000    4.6355700000
H       -9.0899900000   -3.4579280000    8.8639100000
H      -10.6869720000   -2.7763970000    9.0826100000
H      -10.4991170000   -4.5374420000    8.9379090000
O       -9.6920560000   -1.1645950000    7.0697910000
C       -4.1997020000    2.4367910000   -5.2311650000
H       -4.5181810000    3.4823350000   -5.2917870000
O       -3.8541790000    2.1534830000   -3.8797480000
C       -2.5309860000    1.6484360000   -3.8120980000
C       -2.9148070000    2.2185460000   -6.0502140000
H       -3.1143990000    1.9057240000   -7.0749180000
C       -2.1892070000    1.1688060000   -5.2211550000
H       -2.6486270000    0.2027430000   -5.4156390000
H       -1.1221430000    1.1599610000   -5.4101990000
O       -2.2128070000    3.4651110000   -6.0778100000
N        0.9657490000    2.2700230000    5.2100860000
C        0.9852900000    1.1971450000    6.0441370000
C        0.2353800000    2.2158260000    4.0094180000
H        1.5294880000    1.3486160000    6.9643490000
C        0.3746230000    0.0423220000    5.6971070000
N       -0.2800070000    1.0578270000    3.6226150000
O        0.0963100000    3.2571830000    3.3451550000
H        0.3882050000   -0.8038450000    6.3606010000
C       -0.2181900000   -0.0370340000    4.3989750000
N       -0.7247880000   -1.1611960000    3.9372650000
H       -1.1414450000   -1.2071680000    2.9981800000
H       -0.6870770000   -1.9787130000    4.5246400000
N       -2.4427810000    0.6435130000   -2.7897650000
C       -2.8189610000   -0.6721200000   -2.7775780000
C       -1.9288200000    0.8957670000   -1.5577210000
H       -3.2936910000   -1.1514870000   -3.6104690000
N       -2.5616000000   -1.2686060000   -1.6466580000
C       -2.0183900000   -0.2979890000   -0.8343440000
N       -1.4268830000    2.0617790000   -1.1353040000
C       -1.6600120000   -0.2653800000    0.5388260000
C       -0.9972710000    2.0454320000    0.1058500000
O       -1.8326970000   -1.1512820000    1.3890490000
N       -1.1034550000    0.9446720000    0.9130060000
N       -0.3877380000    3.1286260000    0.5951230000
H       -0.8087150000    1.0331790000    1.9031770000
H       -0.2055120000    3.2018330000    1.5927220000
H       -0.5129370000    3.9871950000    0.0857360000
H       -6.9513390000    1.3413110000    2.9186620000
H      -12.7473340000    0.6461420000   -9.7220090000
H        0.4887960000    5.5978810000    3.4568080000
O       -1.4091900000   -4.8940780000   -1.9036730000
C       -1.6370750000   -4.7018600000   -4.2008000000
C       -1.7420670000   -2.8066960000   -5.2370380000
C       -1.3275320000   -5.5311130000   -3.0362930000
N       -2.0882580000   -4.9652440000   -5.4435430000
H       -1.6478330000   -1.7565770000   -5.4112480000
C       -2.1533520000   -3.7787620000   -6.1043140000
C       -0.8939810000   -6.8316770000   -3.1211900000
C       -2.4940290000   -6.2479020000   -5.9964500000
H       -2.4910650000   -3.6930520000   -7.1139390000
H       -0.8544060000   -7.3265500000   -4.0758730000
C       -3.7760090000   -6.1005030000   -6.8139660000
H       -4.1945880000   -7.0845470000   -7.0007960000
H       -4.5127800000   -5.5051550000   -6.2838970000
H       -3.5782490000   -5.6347110000   -7.7748230000
N       -1.4263530000   -3.3889560000   -4.0580860000
C       -1.3629230000   -6.8181970000   -6.8525090000
H       -1.6401840000   -7.8023540000   -7.2173240000
H       -1.1767590000   -6.1757290000   -7.7092540000
H       -0.4400580000   -6.9022850000   -6.2852580000
C        3.7158440000   -0.9636260000    7.1858470000
H        2.9367600000   -0.4245910000    7.7334880000
H        3.7084010000   -2.0144560000    7.4724470000
N        2.9052920000   -1.7800380000    5.1210210000
O        2.5658960000   -1.6308750000    3.7819810000
C        2.0514410000   -2.9065870000    3.3525840000
C        1.2211510000   -2.8274740000    2.1085940000
C        1.4369120000   -1.8707310000    1.1254640000
C        0.2578250000   -3.8106090000    1.8819580000
C        0.7087440000   -1.9423940000   -0.0610360000
H        2.1793470000   -1.1041880000    1.2806060000
C       -0.4106190000   -3.8198600000    0.6734100000
C        0.8669140000   -0.9988690000   -1.1749350000
N       -0.1756160000   -2.9198720000   -0.2658050000
H       -1.1357040000   -4.5748810000    0.4107370000
C        1.4168420000    0.2718980000   -1.0329170000
N        0.4001080000   -1.4271500000   -2.3518580000
Cu      -0.9635980000   -2.9956330000   -2.1350430000
C        1.4674370000    1.1261570000   -2.1290510000
H        1.7723380000    0.6137190000   -0.0723570000
C        0.5083010000   -0.6457350000   -3.4139670000
C        1.0249100000    0.6348790000   -3.3558720000
C        1.9249700000    2.5380610000   -2.0054700000
H        0.1693450000   -1.0720690000   -4.3443570000
H        1.0762720000    1.2581590000   -4.2349390000
H        1.0523560000    3.1755970000   -1.8648880000
H        2.5806500000    2.6779750000   -1.1469020000
H        2.4429400000    2.8569440000   -2.9066540000
C        3.4445220000   -0.8171000000    5.7290820000
H        3.6682620000    0.1531210000    5.2771110000
C       -0.4302060000   -7.5912650000   -1.9450150000
H       -0.3918300000   -6.9530500000   -1.0689420000
H        0.0620510000   -4.5652160000    2.6241740000
H        2.9063730000   -3.5644420000    3.1453310000
H        1.4888060000   -3.3351010000    4.1851820000
H       -2.6888240000   -6.9085900000   -5.1478110000
H       -1.0857350000   -8.4422310000   -1.7590700000
H        0.5577740000   -8.0055810000   -2.1442100000
H        0.6781530000    4.8893030000   -4.9649440000
H       -0.5345550000    6.2023560000   -4.8858850000
H       -5.7517800000    1.8863510000   -6.6379230000
H       -6.1409900000    1.5795510000   -4.9230520000
H       -1.8524720000    2.4533450000   -3.4899960000
O       -2.8609220000    5.0231720000    0.6545220000
C       -4.0152340000    4.3702010000    0.1187120000
C       -4.1687130000    2.9216510000    0.4887810000
C       -4.6506620000    2.0045860000   -0.4427740000
C       -4.0242770000    1.1205150000    2.0741750000
C       -4.7961030000    0.6843990000   -0.0543310000
H       -4.8892180000    2.3161480000   -1.4466580000
C       -3.7287130000    0.5471780000    3.3930280000
N       -4.4793050000    0.2600930000    1.1581210000
H       -5.1648220000   -0.0772360000   -0.7261320000
C       -3.2324380000    1.2828910000    4.4656780000
N       -3.9926440000   -0.7562260000    3.5184960000
Cu      -4.0739940000   -1.6445900000    1.7326310000
C       -3.0424300000    0.6657480000    5.6973690000
H       -2.9971960000    2.3316080000    4.3553020000
C       -3.3779810000   -0.6822570000    5.8078700000
C       -2.5251130000    1.4105850000    6.8793920000
H       -3.2762740000   -1.1824190000    6.7561130000
H       -1.9754950000    2.3075360000    6.5885170000
H       -3.3660180000    1.7229170000    7.4991590000
H       -1.8720120000    0.7892340000    7.4871830000
C       -1.9180240000    5.8212540000    4.0788060000
H       -2.9266090000    5.7214480000    4.4847080000
H       -1.3021810000    5.0027890000    4.4693730000
N       -3.5041210000   -3.5172320000    2.0249560000
O       -4.9753930000   -2.4668000000    0.1263630000
C       -4.0243220000   -4.3332020000    1.0946030000
C       -2.9533600000   -4.2796260000    2.9815780000
C       -4.5691640000   -3.6361500000   -0.0717840000
N       -3.8475000000   -5.6235050000    1.4763840000
H       -2.4467130000   -3.8623950000    3.8247530000
C       -3.1657220000   -5.5924080000    2.6476320000
C       -4.5258750000   -4.2180290000   -1.3836510000
C       -4.3954510000   -6.8660380000    0.8954140000
H       -2.8739690000   -6.4709890000    3.1809630000
C       -5.7638070000   -6.5730830000    0.2756060000
H       -5.6832150000   -6.0604080000   -0.6741830000
H       -6.2920120000   -7.5062700000    0.1039320000
H       -6.3562650000   -5.9740310000    0.9634150000
C       -4.5987740000   -7.8950920000    2.0125330000
H       -3.6595240000   -8.2552380000    2.4194840000
H       -5.2078210000   -7.4861220000    2.8135420000
H       -5.1156020000   -8.7555420000    1.5991240000
C       -1.9701710000    5.7463330000    2.5958250000
N       -2.9153940000    5.1291490000    2.0365780000
C       -3.8370010000   -1.3506780000    4.6911890000
H       -4.1041430000   -2.3954330000    4.7245910000
C       -3.8693690000    2.4662450000    1.7676580000
H       -3.5137770000    3.1634220000    2.5082240000
H       -3.9189830000   -5.0984520000   -1.5109890000
C       -5.1532280000   -3.6802020000   -2.4465750000
C       -3.3915580000   -7.4163130000   -0.1194230000
C       -5.1289860000   -4.2958980000   -3.7807890000
H       -6.1092640000   -4.7274250000   -3.9987470000
H       -4.3890100000   -5.0872750000   -3.8264400000
H       -3.8715520000   -8.1854320000   -0.7155870000
H       -3.0158220000   -6.6407620000   -0.7772120000
H       -2.5449050000   -7.8566390000    0.3991270000
H       -4.9491160000   -3.5494690000   -4.5528860000
H       -5.7479550000   -2.7873010000   -2.3091100000
H       -1.1655530000    6.2253540000    2.0335920000
H       -4.9236860000    4.9013270000    0.4355560000
H       -3.8791510000    4.4827300000   -0.9583080000
