27
DBU_PM6_opt.xyz    Empirical formula: C9H16N2    Energy(Hartree): -0.670891    
N       -0.3971250000    0.6495120000   -0.7844510000
N       -1.1874560000   -1.5240040000   -0.0121520000
C        0.7946360000    1.5234480000   -0.5974730000
C        1.5841500000    1.2729050000    0.6989440000
C       -0.2519550000   -0.7466740000   -0.4744870000
C        2.6452010000    0.1776050000    0.5338450000
C       -1.7024400000    1.2670760000   -0.3969440000
C        1.0900760000   -1.3691310000   -0.8005230000
C        2.0526090000   -1.2291240000    0.3864000000
C       -2.4087930000    0.5300750000    0.7506330000
C       -2.4780850000   -0.9717920000    0.4240370000
H        0.4720350000    2.5861420000   -0.6445210000
H        1.4523490000    1.3643190000   -1.4839920000
H        0.8914480000    1.0077650000    1.5215530000
H        2.0769340000    2.2126770000    1.0139590000
H        3.3218430000    0.1916800000    1.4117350000
H        3.2861750000    0.4065450000   -0.3401720000
H       -2.3403680000    1.2330300000   -1.3118330000
H       -1.5688270000    2.3377140000   -0.1394460000
H        0.9395090000   -2.4477830000   -1.0305040000
H        1.5178560000   -0.9232590000   -1.7190100000
H        1.5265510000   -1.5184880000    1.3197310000
H        2.8766550000   -1.9607030000    0.2703330000
H       -3.4201270000    0.9436470000    0.9061370000
H       -1.8628770000    0.6841710000    1.7003800000
H       -2.7905130000   -1.5547790000    1.3196910000
H       -3.2389690000   -1.1675670000   -0.3644210000
