12
benzene.xyz    Empirical formula: C6H6    Energy(Hartree): -231.977725    
C       -0.2478320000    1.3740670000    0.0000080000
C        1.0660810000    0.9016930000   -0.0000180000
C       -1.3139600000    0.4723980000   -0.0000090000
C        1.3139580000   -0.4724060000    0.0000460000
C       -1.0660830000   -0.9016920000   -0.0000120000
C        0.2478300000   -1.3740710000   -0.0000100000
H       -0.4418330000    2.4487020000    0.0000170000
H        1.8997620000    1.6069550000   -0.0000140000
H       -2.3415240000    0.8417950000   -0.0000270000
H        2.3415490000   -0.8417460000    0.0000470000
H       -1.8997700000   -1.6069450000   -0.0000130000
H        0.4418540000   -2.4487000000   -0.0000340000
