10
cage_free_failed_modred.xyz    Empirical formula: C3H4O3    Energy(Hartree): -341.883317    
O       -2.0497090000   -0.9216440000    0.3750290000
C       -1.6964060000    0.1023500000    0.0080500000
O       -1.3768270000    1.1491580000   -0.3556160000
C        1.6878920000    0.7946150000    0.3456240000
C        2.0121090000   -0.4325660000   -0.1369340000
O        0.9265850000   -0.7852620000   -0.4418930000
H        2.9798580000   -0.9760840000   -0.1853280000
H        1.9111210000   -0.0535600000    1.4670930000
H        0.6560460000    1.1173460000    0.2521510000
H        2.4310090000    1.5878910000    0.5454890000
