91
iron_neutral_quintet.xyz    Empirical formula: C45H41BrFe2P2    Energy(Hartree): -7522.192231    
Fe      -0.8460520000   -1.7320100000    2.4931740000
P       -2.1510680000   -0.0859880000   -0.1626230000
P        1.5472450000   -0.7486880000    0.1808540000
C       -4.3400470000    1.5333820000    0.6706300000
H       -4.2013190000    1.1156470000    1.6694980000
C       -5.3140850000    2.5125410000    0.4538140000
H       -5.9368550000    2.8505070000    1.2856120000
C       -5.4872310000    3.0605540000   -0.8194090000
H       -6.2458970000    3.8290050000   -0.9860310000
C       -4.6836150000    2.6265130000   -1.8797610000
H       -4.8113550000    3.0557520000   -2.8763110000
C       -3.7042520000    1.6560930000   -1.6673150000
H       -3.0567220000    1.3389760000   -2.4892800000
C       -3.5297760000    1.1016810000   -0.3878150000
C       -1.9158800000   -2.3816590000   -1.7550290000
H       -0.8929380000   -2.0445000000   -1.9268100000
C       -2.3707110000   -3.5610760000   -2.3504140000
H       -1.6879130000   -4.1546720000   -2.9626630000
C       -3.6961280000   -3.9677620000   -2.1774110000
H       -4.0524650000   -4.8877130000   -2.6472390000
C       -4.5726840000   -3.1848710000   -1.4185460000
H       -5.6149380000   -3.4898050000   -1.2970830000
C       -4.1204050000   -2.0056120000   -0.8235980000
H       -4.8117220000   -1.3846650000   -0.2494370000
C       -2.7826000000   -1.6065770000   -0.9714950000
C        2.5574080000   -1.6367850000   -2.2774240000
H        1.9931560000   -0.8075500000   -2.7059790000
C        3.2928390000   -2.4829580000   -3.1128890000
H        3.3125010000   -2.2918710000   -4.1883570000
C        3.9879490000   -3.5688890000   -2.5771020000
H        4.5615030000   -4.2297570000   -3.2317080000
C        3.9401200000   -3.8176510000   -1.2003300000
H        4.4754120000   -4.6717730000   -0.7784430000
C        3.2044630000   -2.9782780000   -0.3637330000
H        3.1626020000   -3.1788840000    0.7088480000
C        2.5163730000   -1.8740800000   -0.8964920000
C        2.3331720000    1.0315070000    2.1741360000
H        1.2702860000    1.2586720000    2.2355530000
C        3.2259070000    1.6586240000    3.0415490000
H        2.8507050000    2.3660180000    3.7848950000
C        4.5961460000    1.3953400000    2.9479880000
H        5.2973590000    1.8904130000    3.6239970000
C        5.0651760000    0.5139930000    1.9732470000
H        6.1363360000    0.3232340000    1.8754810000
C        4.1721520000   -0.1215480000    1.1063310000
H        4.5523870000   -0.7993150000    0.3423680000
C        2.7972760000    0.1190270000    1.2121000000
C        0.8875320000   -1.9349500000    1.4075270000
C        1.1776000000   -2.0088710000    2.8110110000
H        1.8256120000   -1.3291010000    3.3576260000
C        0.4453840000   -3.1016680000    3.3599030000
H        0.4309600000   -3.3951650000    4.4081470000
C       -0.2911710000   -3.7178170000    2.3042530000
H       -0.9686770000   -4.5642660000    2.4015960000
C       -0.0246240000   -3.0014040000    1.1024390000
H       -0.4499880000   -3.2168860000    0.1266010000
C       -1.4442500000    0.2296950000    2.5929050000
H       -0.8114750000    1.0903850000    2.3925910000
C       -1.6555560000   -0.3916640000    3.8567060000
H       -1.1934220000   -0.0968680000    4.7970280000
C       -2.5414850000   -1.4944720000    3.6635550000
H       -2.8703620000   -2.1921750000    4.4318450000
C       -2.8838890000   -1.5557870000    2.2810060000
H       -3.5122200000   -2.3054550000    1.8068500000
C       -2.2054330000   -0.4859260000    1.6049520000
Fe       0.0147830000    0.8486140000   -0.9700980000
Br      -0.3609560000    0.4444320000   -3.3445300000
C        1.3775030000    3.3624010000   -0.0597730000
H        1.4517200000    4.3264240000    0.4650620000
C        0.1937230000    2.7064870000   -0.1371010000
C       -1.0757060000    3.3415360000    0.3931720000
H       -1.7797140000    3.4385740000   -0.4546320000
H       -1.5926720000    2.6315300000    1.0638570000
C        2.6631860000    2.8910740000   -0.5961610000
C        2.7442560000    2.0449840000   -1.7198590000
C        3.8703520000    3.2866270000    0.0115140000
C        3.9725740000    1.5628770000   -2.1743820000
H        1.8384680000    1.8150780000   -2.2856130000
C        5.0985500000    2.8132210000   -0.4459880000
H        3.8330900000    3.9552750000    0.8749780000
C        5.1571540000    1.9375390000   -1.5353830000
H        4.0045570000    0.9079650000   -3.0478850000
H        6.0184180000    3.1195870000    0.0583770000
H        6.1198390000    1.5643460000   -1.8931750000
C       -2.3627370000    5.1676980000    1.5920350000
H       -3.0677190000    5.2634070000    0.7496140000
H       -2.3040660000    6.1455160000    2.0966290000
H       -2.8074240000    4.4494410000    2.3015060000
C       -0.9926030000    4.6905990000    1.1106140000
H       -0.3012230000    4.6129240000    1.9688390000
H       -0.5515920000    5.4429420000    0.4344660000
