48
pd_genecp_ts.xyz    Empirical formula: C21H19N3O4Pd    Energy(Hartree): -1401.992791    
C        3.7381250000   -0.7992620000   -0.3342200000
C        4.8828500000   -1.5900610000   -0.1318660000
C        6.1206270000   -1.2393480000   -0.6644170000
C        6.2411260000   -0.0727190000   -1.4220300000
C        5.1162100000    0.7136710000   -1.6592670000
C        3.8694810000    0.3556760000   -1.1369430000
H        4.7923750000   -2.5116430000    0.4478170000
H        6.9876240000   -1.8797410000   -0.4929530000
H        7.2055970000    0.2144680000   -1.8456890000
H        5.1736500000    1.6136680000   -2.2757980000
C        2.4722310000   -1.1486360000    0.3525230000
C        2.4768460000   -1.7452600000    1.6226740000
C        1.1986910000   -0.8588150000   -0.1542140000
H        3.4272480000   -1.9685560000    2.1198050000
H        1.0647190000   -0.4057950000   -1.1355830000
C        0.2141910000   -1.7043670000    1.7511490000
H       -0.7151880000   -1.9125660000    2.2897810000
O        2.7807510000    1.1121620000   -1.4565510000
C        2.5784220000    2.3694620000   -0.8107160000
H        3.5180740000    2.7063770000   -0.3412830000
H        2.3009660000    3.0908110000   -1.5940290000
C        1.4730400000    2.2309890000    0.2044000000
C        0.1705190000    1.9778760000   -0.2452950000
C        1.7379580000    2.1730550000    1.5765170000
C       -0.8570890000    1.6016990000    0.6355290000
H       -0.0331470000    2.0112200000   -1.3223260000
C        0.7154090000    1.8787150000    2.4866300000
H        2.7555660000    2.3533720000    1.9368170000
C       -0.5666950000    1.5940580000    2.0165100000
H       -2.0871110000    1.9131350000    0.2674470000
H       -1.3572300000    1.3324190000    2.7267780000
N        1.3679590000   -2.0502150000    2.2951300000
N        0.0941940000   -1.0900980000    0.5643260000
Pd      -1.7454230000   -0.2990560000    0.0410660000
O       -4.1932820000   -3.2308140000   -1.1082660000
O       -2.4069730000   -2.0998820000   -0.3909370000
O       -3.2462170000    2.4406360000   -0.0562490000
N       -3.5649250000    0.2435810000   -0.4793810000
C       -4.3986540000   -0.8621430000   -0.9088620000
C       -3.6471210000   -2.1938950000   -0.8105010000
C       -3.9900400000    1.4923410000   -0.4413520000
C       -5.4004010000    1.8117670000   -0.8641760000
H       -5.3124330000   -0.9598010000   -0.2978680000
H       -5.5751580000    1.4852600000   -1.8998110000
H       -6.1209920000    1.2757510000   -0.2289730000
H       -5.5646790000    2.8909460000   -0.7811040000
H       -4.7297700000   -0.7536910000   -1.9564030000
H        0.9301850000    1.8524330000    3.5573610000
