128
TS_5coord_XIII_wbi.xyz    Empirical formula: C51H63NNiO9P2Si    Energy(Hartree): -5189.249707    
Ni      -1.7567200000   -1.7067640000    0.3104850000
P       -2.1185270000    0.5682890000   -0.1253810000
O       -2.1751000000    1.9939870000    2.4242770000
O       -4.6831300000    1.3613170000   -1.4370060000
O       -2.3719690000    2.8737560000   -2.1803730000
O       -1.5071060000   -1.7381610000   -1.7629200000
O        0.1848570000   -1.1393260000    0.3793290000
C       -4.4779250000    2.1258730000   -0.3458360000
C        0.5003430000    0.1077900000    0.4115410000
C        1.8690820000    0.5050880000    0.5688680000
C       -3.3127730000    1.8478000000    0.3915810000
C       -1.9966350000    0.5725840000   -1.9741700000
C       -0.4419980000    1.1671140000    0.2616060000
C       -0.7122280000   -2.8268220000   -2.2115520000
H       -1.2656380000   -3.4477090000   -2.9374240000
H       -0.4691020000   -3.4325420000   -1.3290110000
H        0.2257950000   -2.4608720000   -2.6547290000
C       -5.5656250000    1.8003390000   -2.4321920000
H       -5.4176140000    1.1482160000   -3.3057520000
H       -5.3580760000    2.8451340000   -2.7294180000
H       -6.6229900000    1.7267190000   -2.1183440000
C       -5.3662630000    3.1273810000    0.0602400000
H       -6.2529480000    3.3609400000   -0.5337120000
C        2.2110540000    1.8464000000    0.6418190000
H        3.2678080000    2.1044880000    0.7769670000
C        1.2685690000    2.8889720000    0.5288770000
C       -1.6748880000    2.7698450000    3.4792760000
H       -0.7668730000    2.2659230000    3.8419510000
H       -2.3906120000    2.8514930000    4.3177880000
H       -1.4018780000    3.7870840000    3.1410420000
C       -2.4420650000    4.0631990000   -2.9184470000
H       -1.4704160000    4.3207280000   -3.3788310000
H       -2.7208300000    4.8586360000   -2.2123670000
H       -3.2079530000    4.0176400000   -3.7141940000
C       -2.0913480000    1.7130770000   -2.7990790000
C       -1.8911190000    1.6210740000   -4.1813180000
H       -1.9717000000    2.5041220000   -4.8185920000
C       -1.5652250000    0.3884270000   -4.7425280000
H       -1.4056850000    0.3156680000   -5.8225410000
C       -0.0561740000    2.5106090000    0.3172340000
H       -0.8331780000    3.2716770000    0.1870530000
C       -5.1270560000    3.8062160000    1.2532520000
H       -5.8193830000    4.5908330000    1.5731860000
C       -4.0443960000    3.4769800000    2.0624990000
H       -3.8988350000    3.9785020000    3.0220350000
C       -3.1696060000    2.4648820000    1.6488470000
C       -1.6397590000   -0.6409560000   -2.5757100000
C       -1.4282060000   -0.7469090000   -3.9555930000
H       -1.1611230000   -1.7023640000   -4.4109420000
C       -2.5154420000   -4.4949650000    0.5977770000
C       -3.2202770000   -5.6599520000    0.3186240000
C       -4.3534520000   -5.5812190000   -0.4851280000
C       -4.7375290000   -4.3380860000   -0.9820520000
C       -3.9724530000   -3.2241510000   -0.6613800000
N       -2.8808440000   -3.2996620000    0.1150300000
H       -4.9319180000   -6.4783890000   -0.7222520000
H       -1.6213600000   -4.5140740000    1.2303850000
H       -2.8774250000   -6.6122420000    0.7294310000
H       -5.6208900000   -4.2254610000   -1.6146280000
H       -4.2325850000   -2.2276050000   -1.0390510000
C       -1.9117510000   -1.6578870000    2.2099580000
H       -1.3169050000   -2.5183800000    2.5861430000
H       -1.3680370000   -0.7474080000    2.5299750000
Si      -3.5968370000   -1.6785990000    3.0213950000
C       -4.2622420000   -3.4345160000    3.2538470000
H       -3.4984270000   -4.1237010000    3.6563820000
H       -5.1046590000   -3.4229800000    3.9694950000
H       -4.6450700000   -3.8668350000    2.3128090000
C       -3.4331540000   -0.9107400000    4.7419780000
H       -2.6995360000   -1.4550190000    5.3627400000
H       -3.0849590000    0.1352450000    4.6609830000
H       -4.3957980000   -0.9046060000    5.2845340000
C       -4.9608770000   -0.7204070000    2.1366140000
H       -4.7925770000    0.3700250000    2.1675880000
H       -5.0733900000   -1.0132470000    1.0777270000
H       -5.9248850000   -0.9179750000    2.6408110000
C        1.7364260000    4.3427670000    0.5858000000
C        0.5790980000    5.3223920000    0.4177200000
H        0.0712150000    5.1980410000   -0.5544130000
H       -0.1800680000    5.2067020000    1.2110980000
H        0.9512930000    6.3604530000    0.4656850000
C        2.7431920000    4.6020680000   -0.5403760000
H        3.1074760000    5.6452180000   -0.5134550000
H        3.6244210000    3.9409690000   -0.4686280000
H        2.2786170000    4.4308840000   -1.5279980000
C        2.4065380000    4.6214840000    1.9340180000
H        3.2811440000    3.9707570000    2.1013170000
H        2.7555760000    5.6684140000    1.9930460000
H        1.7016000000    4.4510700000    2.7669300000
P        3.0409580000   -0.8893460000    0.7759850000
C        3.3717320000   -1.5531830000   -0.9348680000
C        2.6808740000   -1.2783610000   -2.1229320000
C        4.4596360000   -2.4507030000   -1.0183260000
C        3.0792540000   -1.8413030000   -3.3443900000
C        4.8868320000   -2.9861720000   -2.2355810000
C        4.1846290000   -2.6781510000   -3.4004440000
H        2.4999110000   -1.6010310000   -4.2428840000
H        5.7476490000   -3.6587580000   -2.2726250000
H        4.5010460000   -3.1091570000   -4.3552310000
C        4.6616170000   -0.0097750000    1.0421210000
C        5.2818540000   -0.1649470000    2.2996250000
C        5.3730160000    0.6875850000    0.0454440000
C        6.5739180000    0.3245320000    2.5424950000
C        6.6719920000    1.1664340000    0.2735900000
C        7.2544930000    0.9771710000    1.5209800000
H        7.0489690000    0.1983070000    3.5172470000
H        7.2165460000    1.6995620000   -0.5087190000
H        8.2641820000    1.3570590000    1.7060270000
O        4.5713070000   -0.8142560000    3.2417630000
O        4.7454200000    0.8837570000   -1.1330290000
O        5.0701740000   -2.7418510000    0.1539980000
O        1.5853540000   -0.4707360000   -2.1209630000
C        5.1413520000   -1.0608490000    4.4961610000
H        5.3843430000   -0.1271210000    5.0358580000
H        4.3962810000   -1.6158570000    5.0828400000
H        6.0573750000   -1.6760680000    4.4233070000
C        5.4938450000    1.2160570000   -2.2694990000
H        5.9143360000    2.2373420000   -2.2164700000
H        6.3202400000    0.4999000000   -2.4384900000
H        4.8100320000    1.1738260000   -3.1303600000
C        6.4236520000   -3.0984450000    0.1554110000
H        6.7665460000   -3.0666570000    1.2005730000
H        6.5961740000   -4.1204030000   -0.2300490000
H        7.0308100000   -2.3876440000   -0.4376370000
C        1.7275750000    0.7991420000   -2.7063290000
H        1.9735980000    0.7396100000   -3.7851230000
H        0.7609130000    1.3175430000   -2.5994250000
H        2.5036420000    1.3920120000   -2.1880830000
