45
udc3_mCF3_monomer_c4.xyz    Empirical formula: C20H10F12O3    Energy(Hartree): -2189.631995    
O        0.0000170000    1.9816750000    0.0001320000
O        1.1496910000    3.7513690000   -0.8049310000
O       -1.1495700000    3.7514480000    0.8051470000
C        1.1516070000    2.6633030000   -0.3261270000
C       -1.1515420000    2.6633700000    0.3263710000
C        2.3675820000    1.8436650000   -0.0604430000
C        3.6021910000    2.3712390000   -0.4431410000
C        2.3046770000    0.5935060000    0.5558270000
C        4.7646800000    1.6470110000   -0.2112790000
H        3.6307520000    3.3521900000   -0.9193250000
C        3.4738070000   -0.1272090000    0.7833370000
H        1.3436880000    0.1825630000    0.8609500000
C        4.7226590000    0.3899330000    0.4021200000
H        5.7292670000    2.0560410000   -0.5148240000
C       -2.3675670000    1.8438410000    0.0605840000
C       -3.6021530000    2.3714860000    0.4432650000
C       -2.3047270000    0.5936980000   -0.5557250000
C       -4.7646880000    1.6473490000    0.2113380000
H       -3.6306590000    3.3524150000    0.9194960000
C       -3.4739070000   -0.1269110000   -0.7833150000
H       -1.3437530000    0.1826710000   -0.8607800000
C       -4.7227320000    0.3903120000   -0.4021480000
H       -5.7292560000    2.0564330000    0.5148690000
C        6.0131110000   -0.3714740000    0.5918940000
H        5.9215440000   -1.1953460000    1.3073550000
H        6.8002670000    0.3022620000    0.9576020000
C       -6.0132070000   -0.3710230000   -0.5920480000
H       -6.8004400000    0.3028480000   -0.9573430000
H       -5.9217290000   -1.1945890000   -1.3078710000
C       -6.5197990000   -0.9588370000    0.7092730000
C        6.5199820000   -0.9586470000   -0.7096160000
F        5.6141580000   -1.7368740000   -1.2931980000
F        7.6144640000   -1.6880560000   -0.4983050000
F        6.8427300000    0.0023960000   -1.5831540000
F       -7.6143640000   -1.6880870000    0.4978440000
F       -6.8422830000    0.0017580000    1.5834040000
F       -5.6138530000   -1.7374220000    1.2921910000
C       -3.3789480000   -1.4674810000   -1.4748560000
C        3.3787370000   -1.4677040000    1.4750210000
F        4.0223260000   -1.4523190000    2.6488720000
F        2.1171930000   -1.8107170000    1.7199450000
F        3.9267430000   -2.4413420000    0.7467550000
F       -4.0224670000   -1.4521400000   -2.6487450000
F       -2.1174320000   -1.8106920000   -1.7196530000
F       -3.9271460000   -2.4409490000   -0.7465010000
